$ Length unit:                    millimeter (mm)
$ Time unit:                      second (s)
$ Mass unit:                      tonne (T)
$ Force unit:                     Newton (N)
$ Young’s Modulus unit:           Mpa (N/mm^2)
$ Density:                        kg/mm^3
$ Stress unit:                    Mpa (N/mm^2)
$ Acceleration due to gravity:    0 mm/s^2
$ Author:                         DaN, DaL, DaZ
$ Company:                        The Living, Autodesk
$ Date:                           02/23/2017
$ Version:                        1.0
$ Update:                         Test Lattice
$ FEM Description:                2 Pressure Load         
$ ----------------------------------------------------------------------------
$   Analysis   : Linear Static
$ ----------------------------------------------------------------------------
  

$test nastrynamo - dyn to nas writer

SOL 101
CEND
ECHO = NONE
TITLE = 
DISPLACEMENT(PLOT) = ALL
FORCE(PLOT,CORNER) = ALL
VOLUME 1, SET ALL, SYSTEM BASIC
SUBCASE 1
   SPC  = 1
   LOAD = 1
   STRAIN(PLOT,CORNER) = ALL
   STRESS(PLOT,CORNER) = ALL
   GPFORCE(PLOT) = ALL
   OLOAD(PLOT,REAL,RALL) = ALL
BEGIN BULK 

 
$Parameter                                                                      
PARAM,POST,-1
PARAM,OGEOM,NO
PARAM,AUTOSPC,YES
PARAM,GRDPNT,0
   
PARAM,ELEMRSLTCORD,ELEMENT
PARAM,ELEMGEOMCHECKS,OFF


                                                                                                                
$GRAV    99998           9814.56 0.      16.     -1.    



$start pbar
PBAR    101     101     3.14159 0.7853970.7853971.57079                         
        0.      0.      0.      1.      1.      0.      1.      1.              
        2.7851  2.7851    


$pbar r = 0.5
PBAR    10000   101     0.78539 0.04908 0.04908 0.09817 
        0.      0.      0.      0.      0.      0.      0.      0.
        0.      0.
 
$pbar r = 0.6
PBAR    10001   101     1.13097 0.10178 0.10178 0.20357 
        0.      0.      0.      0.      0.      0.      0.      0.
        0.      0.
 
$pbar r = 0.7
PBAR    10002   101     1.53937 0.18857 0.18857 0.37714 
        0.      0.      0.      0.      0.      0.      0.      0.
        0.      0.
 
$pbar r = 0.8
PBAR    10003   101     2.01061 0.32169 0.32169 0.64339 
        0.      0.      0.      0.      0.      0.      0.      0.
        0.      0.
 
$pbar r = 0.9
PBAR    10004   101     2.54468 0.51529 0.51529 1.03059 
        0.      0.      0.      0.      0.      0.      0.      0.
        0.      0.
 
$pbar r = 1.0
PBAR    10005   101     3.14159 0.78539 0.78539 1.57079 
        0.      0.      0.      0.      0.      0.      0.      0.
        0.      0.
 
$pbar r = 1.1
PBAR    10006   101     3.80132 1.14990 1.14990 2.29980 
        0.      0.      0.      0.      0.      0.      0.      0.
        0.      0.
 
$pbar r = 1.2
PBAR    10007   101     4.52388 1.62860 1.62860 3.25720 
        0.      0.      0.      0.      0.      0.      0.      0.
        0.      0.
 
$pbar r = 1.3
PBAR    10008   101     5.30928 2.24317 2.24317 4.48634 
        0.      0.      0.      0.      0.      0.      0.      0.
        0.      0.
 
$pbar r = 1.4
PBAR    10009   101     6.15751 3.01718 3.01718 6.03436 
        0.      0.      0.      0.      0.      0.      0.      0.
        0.      0.
 
$pbar r = 1.5
PBAR    10010   101     7.06857 3.97607 3.97607 7.95214 
        0.      0.      0.      0.      0.      0.      0.      0.
        0.      0.
 
$pbar r = 1.6
PBAR    10011   101     8.04247 5.14718 5.14718 10.2943 
        0.      0.      0.      0.      0.      0.      0.      0.
        0.      0.
 
$pbar r = 1.7
PBAR    10012   101     9.07919 6.55971 6.55971 13.1194 
        0.      0.      0.      0.      0.      0.      0.      0.
        0.      0.
 
$pbar r = 1.8
PBAR    10013   101     10.1787 8.24478 8.24478 16.4895 
        0.      0.      0.      0.      0.      0.      0.      0.
        0.      0.
 
$pbar r = 1.9
PBAR    10014   101     11.3411 10.2353 10.2353 20.4707 
        0.      0.      0.      0.      0.      0.      0.      0.
        0.      0.
 
$pbar r = 2.0
PBAR    10015   101     12.5663 12.5663 12.5663 25.1327 
        0.      0.      0.      0.      0.      0.      0.      0.
        0.      0.
 
$pbar r = 2.1
PBAR    10016   101     13.8544 15.2744 15.2744 30.5489 
        0.      0.      0.      0.      0.      0.      0.      0.
        0.      0.
 
$pbar r = 2.2
PBAR    10017   101     15.2052 18.3984 18.3984 36.7968 
        0.      0.      0.      0.      0.      0.      0.      0.
        0.      0.
 
$pbar r = 2.3
PBAR    10018   101     16.6190 21.9786 21.9786 43.9572 
        0.      0.      0.      0.      0.      0.      0.      0.
        0.      0.
 
$pbar r = 2.4
PBAR    10019   101     18.0955 26.0576 26.0576 52.1152 
        0.      0.      0.      0.      0.      0.      0.      0.
        0.      0.
 
$pbar r = 2.5
PBAR    10020   101     19.6349 30.6795 30.6795 61.3591 
        0.      0.      0.      0.      0.      0.      0.      0.
        0.      0.
 
$pbar r = 2.6
PBAR    10021   101     21.2371 35.8907 35.8907 71.7815 
        0.      0.      0.      0.      0.      0.      0.      0.
        0.      0.
 
$pbar r = 2.7
PBAR    10022   101     22.9021 41.7392 41.7392 83.4784 
        0.      0.      0.      0.      0.      0.      0.      0.
        0.      0.
 
$pbar r = 2.8
PBAR    10023   101     24.6300 48.2749 48.2749 96.5498 
        0.      0.      0.      0.      0.      0.      0.      0.
        0.      0.
 
$pbar r = 2.9
PBAR    10024   101     26.4207 55.5496 55.5496 111.099 
        0.      0.      0.      0.      0.      0.      0.      0.
        0.      0.
 
$pbar r = 3.0
PBAR    10025   101     28.2743 63.6171 63.6171 127.234 
        0.      0.      0.      0.      0.      0.      0.      0.
        0.      0.
 
$pbar r = 3.1
PBAR    10026   101     30.1906 72.5331 72.5331 145.066 
        0.      0.      0.      0.      0.      0.      0.      0.
        0.      0.
 
$pbar r = 3.2
PBAR    10027   101     32.1698 82.3548 82.3548 164.709 
        0.      0.      0.      0.      0.      0.      0.      0.
        0.      0.
 
$pbar r = 3.3
PBAR    10028   101     34.2119 93.1419 93.1419 186.283 
        0.      0.      0.      0.      0.      0.      0.      0.
        0.      0.
 
$pbar r = 3.4
PBAR    10029   101     36.3167 104.955 104.955 209.910 
        0.      0.      0.      0.      0.      0.      0.      0.
        0.      0.
 
$pbar r = 3.5
PBAR    10030   101     38.4844 117.858 117.858 235.717 
        0.      0.      0.      0.      0.      0.      0.      0.
        0.      0.
 
$pbar r = 3.6
PBAR    10031   101     40.7150 131.916 131.916 263.833 
        0.      0.      0.      0.      0.      0.      0.      0.
        0.      0.
 
$pbar r = 3.7
PBAR    10032   101     43.0083 147.196 147.196 294.392 
        0.      0.      0.      0.      0.      0.      0.      0.
        0.      0.
 
$pbar r = 3.8
PBAR    10033   101     45.3645 163.766 163.766 327.532 
        0.      0.      0.      0.      0.      0.      0.      0.
        0.      0.
 
$pbar r = 3.9
PBAR    10034   101     47.7835 181.697 181.697 363.394 
        0.      0.      0.      0.      0.      0.      0.      0.
        0.      0.
 
$pbar r = 4.0
PBAR    10035   101     50.2654 201.061 201.061 402.123 
        0.      0.      0.      0.      0.      0.      0.      0.
        0.      0.
 
$pbar r = 4.1
PBAR    10036   101     52.8101 221.934 221.934 443.869 
        0.      0.      0.      0.      0.      0.      0.      0.
        0.      0.
 
$pbar r = 4.2
PBAR    10037   101     55.4176 244.391 244.391 488.783 
        0.      0.      0.      0.      0.      0.      0.      0.
        0.      0.
 
$pbar r = 4.3
PBAR    10038   101     58.0879 268.511 268.511 537.023 
        0.      0.      0.      0.      0.      0.      0.      0.
        0.      0.
 
$pbar r = 4.4
PBAR    10039   101     60.8211 294.374 294.374 588.749 
        0.      0.      0.      0.      0.      0.      0.      0.
        0.      0.
 
$pbar r = 4.5
PBAR    10040   101     63.6171 322.062 322.062 644.124 
        0.      0.      0.      0.      0.      0.      0.      0.
        0.      0.
 
$pbar r = 4.6
PBAR    10041   101     66.4760 351.658 351.658 703.316 
        0.      0.      0.      0.      0.      0.      0.      0.
        0.      0.
 
$pbar r = 4.7
PBAR    10042   101     69.3977 383.248 383.248 766.497 
        0.      0.      0.      0.      0.      0.      0.      0.
        0.      0.
 
$pbar r = 4.8
PBAR    10043   101     72.3822 416.921 416.921 833.843 
        0.      0.      0.      0.      0.      0.      0.      0.
        0.      0.
 
$pbar r = 4.9
PBAR    10044   101     75.4295 452.766 452.766 905.532 
        0.      0.      0.      0.      0.      0.      0.      0.
        0.      0.
 
$pbar r = 5.0
PBAR    10045   101     78.5397 490.873 490.873 981.746 
        0.      0.      0.      0.      0.      0.      0.      0.
        0.      0.
 
$pbar r = 5.1
PBAR    10046   101     81.7127 531.337 531.337 1062.67 
        0.      0.      0.      0.      0.      0.      0.      0.
        0.      0.
 
$pbar r = 5.2
PBAR    10047   101     84.9485 574.252 574.252 1148.50 
        0.      0.      0.      0.      0.      0.      0.      0.
        0.      0.
 
$pbar r = 5.3
PBAR    10048   101     88.2472 619.716 619.716 1239.43 
        0.      0.      0.      0.      0.      0.      0.      0.
        0.      0.
 
$pbar r = 5.4
PBAR    10049   101     91.6087 667.827 667.827 1335.65 
        0.      0.      0.      0.      0.      0.      0.      0.
        0.      0.
 
$pbar r = 5.5
PBAR    10050   101     95.0330 718.687 718.687 1437.37 
        0.      0.      0.      0.      0.      0.      0.      0.
        0.      0.
 
$pbar r = 5.6
PBAR    10051   101     98.5202 772.398 772.398 1544.79 
        0.      0.      0.      0.      0.      0.      0.      0.
        0.      0.
 
$pbar r = 5.7
PBAR    10052   101     102.070 829.065 829.065 1658.13 
        0.      0.      0.      0.      0.      0.      0.      0.
        0.      0.
 
$pbar r = 5.8
PBAR    10053   101     105.683 888.794 888.794 1777.58 
        0.      0.      0.      0.      0.      0.      0.      0.
        0.      0.
 
$pbar r = 5.9
PBAR    10054   101     109.358 951.694 951.694 1903.38 
        0.      0.      0.      0.      0.      0.      0.      0.
        0.      0.
 
$pbar r = 6.0
PBAR    10055   101     113.097 1017.87 1017.87 2035.75 
        0.      0.      0.      0.      0.      0.      0.      0.
        0.      0.
 
$pbar r = 6.1
PBAR    10056   101     116.898 1087.44 1087.44 2174.89 
        0.      0.      0.      0.      0.      0.      0.      0.
        0.      0.
 
 

$end pbar


MAT1    101     72394.          0.33    2.68-9  2.09-5                                                                                                
MAT4    101     0.113   0.      
                             
                  
PSHELL  102     101     1.      101             101  


$--- ---1-------2-------3-------4-------5-------6-------7-------8-------9-------0   
$cquad4                                        
                  






GRID    20000768        211.0   -5.0    285.0     
GRID    20000769        211.0   -10.0   285.0     
GRID    20000770        211.0   -5.0    293.0     
GRID    20000771        211.0   -10.0   293.0     
GRID    20000772        211.0   -10.0   301.0     
GRID    20000773        211.0   -5.0    301.0     
GRID    20000774        203.0   -30.0   301.0     
GRID    20000775        195.0   -30.0   301.0     
GRID    20000776        203.0   -25.0   301.0     
GRID    20000777        203.0   -20.0   301.0     
GRID    20000778        195.0   -20.0   301.0     
GRID    20000779        195.0   -25.0   301.0     
GRID    20000780        211.0   -30.0   285.0     
GRID    20000781        211.0   -30.0   293.0     
GRID    20000782        211.0   -30.0   301.0     
GRID    20000783        211.0   -25.0   285.0     
GRID    20000784        211.0   -20.0   285.0     
GRID    20000785        211.0   -25.0   293.0     
GRID    20000786        211.0   -20.0   293.0     
GRID    20000787        211.0   -20.0   301.0     
$ ... 799 like lines cut

$end_grid_pt 

$cquad

CQUAD4  30000001102     20000133200001632000016420000134
CQUAD4  30000002102     20000101200001312000013220000102
CQUAD4  30000003102     20000603200006052000060720000604
CQUAD4  30000004102     20000746200007472000074820000749
CQUAD4  30000005102     20000523200001372000013820000108
CQUAD4  30000006102     20000188200002192000022020000189
CQUAD4  30000007102     20000221200002512000025220000222
CQUAD4  30000008102     20000391200004222000042320000392
CQUAD4  30000009102     20000481200004822000055820000483
CQUAD4  30000010102     20000445200004772000047820000446
CQUAD4  30000011102     20000057200000882000008920000058
CQUAD4  30000012102     20000202200002322000023320000203
CQUAD4  30000013102     20000668200006692000067020000671
CQUAD4  30000014102     20000431200004622000046320000432
CQUAD4  30000015102     20000435200004662000046720000436
CQUAD4  30000016102     20000384200004152000041620000385
CQUAD4  30000017102     20000627200006282000063020000629
CQUAD4  30000018102     20000516200005692000051820000517
CQUAD4  30000019102     20000655200006592000066220000656
CQUAD4  30000020102     20000487200004882000056020000489
$ ... 618 like lines cut

$rbe

RBE3    90000000        20000520123456  1.      123     20000521  
RBE3    90000001        20000571123456  1.      123     20000352  
RBE3    90000002        20000572123456  1.      123     20000353  
RBE3    90000003        20000573123456  1.      123     20000381  
RBE3    90000004        20000574123456  1.      123     20000381  
RBE3    90000005        20000575123456  1.      123     20000382  
RBE3    90000006        20000576123456  1.      123     20000382  
RBE3    90000007        20000577123456  1.      123     20000383  
RBE3    90000008        20000578123456  1.      123     20000383  
RBE3    90000009        20000579123456  1.      123     20000379  
RBE3    90000010        20000580123456  1.      123     20000380  
RBE3    90000011        20000581123456  1.      123     20000524  
RBE3    90000012        20000582123456  1.      123     20000409  
RBE3    90000013        20000583123456  1.      123     20000409  
RBE3    90000014        20000584123456  1.      123     20000410  
RBE3    90000015        20000585123456  1.      123     20000410  
RBE3    90000016        20000586123456  1.      123     20000411  
RBE3    90000017        20000587123456  1.      123     20000411  
RBE3    90000018        20000588123456  1.      123     20000364  
RBE3    90000019        20000589123456  1.      123     20000365  
$ ... 97 like lines cut

$spc + load points
 
SPC     1       20000521123      
SPC     1       20000522123      
SPC     1       20000523123      
SPC     1       20000524123      
SPC     1       20000525123      
SPC     1       20000526123      
SPC     1       20000527123      
SPC     1       20000528123      
SPC     1       20000529123      
SPC     1       20000530123      
SPC     1       20000531123      
SPC     1       20000532123      
SPC     1       20000533123      
SPC     1       20000534123      
SPC     1       20000535123      
SPC     1       20000536123      
SPC     1       20000537123      
SPC     1       20000538123      
SPC     1       20000539123      
SPC     1       20000540123      
$ ... 30 like lines cut
PLOAD4  1       30000001-50.0   -50.0   -50.0   -50.0    
PLOAD4  1       30000002-50.0   -50.0   -50.0   -50.0    
PLOAD4  1       30000003-50.0   -50.0   -50.0   -50.0    
PLOAD4  1       30000005-50.0   -50.0   -50.0   -50.0    
PLOAD4  1       30000006-50.0   -50.0   -50.0   -50.0    
PLOAD4  1       30000007-50.0   -50.0   -50.0   -50.0    
PLOAD4  1       30000008-50.0   -50.0   -50.0   -50.0    
PLOAD4  1       30000009-50.0   -50.0   -50.0   -50.0    
PLOAD4  1       30000010-50.0   -50.0   -50.0   -50.0    
PLOAD4  1       30000011-50.0   -50.0   -50.0   -50.0    
PLOAD4  1       30000012-50.0   -50.0   -50.0   -50.0    
PLOAD4  1       30000014-50.0   -50.0   -50.0   -50.0    
PLOAD4  1       30000015-50.0   -50.0   -50.0   -50.0    
PLOAD4  1       30000016-50.0   -50.0   -50.0   -50.0    
PLOAD4  1       30000017-50.0   -50.0   -50.0   -50.0    
PLOAD4  1       30000018-50.0   -50.0   -50.0   -50.0    
PLOAD4  1       30000019-50.0   -50.0   -50.0   -50.0    
PLOAD4  1       30000020-50.0   -50.0   -50.0   -50.0    
PLOAD4  1       30000021-50.0   -50.0   -50.0   -50.0    
PLOAD4  1       30000022-50.0   -50.0   -50.0   -50.0    
$ ... 538 like lines cut
$load


$end Grid 


$cbar      
                        
                                                                                                                
LOAD    1       1.      1.      10000   1.      10001   1.      99999           
        1.      99998   0.      99994   0.      99993        



                                                   
ENDDATA


                                               

















$ ... 63 like lines cut