$ Length unit:                    millimeter (mm)
$ Time unit:                      second (s)
$ Mass unit:                      tonne (T)
$ Force unit:                     Newton (N)
$ Young’s Modulus unit:           Mpa (N/mm^2)
$ Density:                        kg/mm^3
$ Stress unit:                    Mpa (N/mm^2)
$ Acceleration due to gravity:    0 mm/s^2
$ Author:                         Damon Lau
$ Company:                        The Living, Autodesk
$ Date:                           02/23/2017
$ Version:                        1.0
$ Update:                         Airbus VTF 
$ FEM Description:                2 Pressure Load         
$ ----------------------------------------------------------------------------
$   Analysis   : Linear Static
$ ----------------------------------------------------------------------------


$test nastrynamo - dyn to nas writer

SOL 101
CEND
ECHO = NONE
TITLE = 
DISPLACEMENT(PLOT) = ALL
FORCE(PLOT,CORNER) = ALL
VOLUME 1, SET ALL, SYSTEM BASIC
SUBCASE 1
   SPC  = 1
   LOAD = 1
   STRAIN(PLOT,CORNER) = ALL
   STRESS(PLOT,CORNER) = ALL
   GPFORCE(PLOT) = ALL
   OLOAD(PLOT,REAL,RALL) = ALL
BEGIN BULK 

 
$Parameter                                                                      
PARAM,POST,-1
PARAM,OGEOM,NO
PARAM,AUTOSPC,YES
PARAM,GRDPNT,0
   
PARAM,ELEMRSLTCORD,ELEMENT
PARAM,ELEMGEOMCHECKS,OFF


                                                                                                                
GRAV    99998           9814.56 0.      16.     -1.    



$start pbar
PBAR    101     101     3.14159 0.7853970.7853971.57079                         
        0.      0.      0.      1.      1.      0.      1.      1.              
        2.7851  2.7851   
$end pbar


MAT1    101     72394.          0.33    2.68-9  2.09-5                                                                                                
MAT4    101     0.113   0.      
                             
                  
PSHELL  102     101     1.      101             101  


$--- ---1-------2-------3-------4-------5-------6-------7-------8-------9-------0   
$cquad4                                        
CQUAD4  10000000102     20000001200000032000000420000002                   



$start Grid
GRID    20000001        0.0     0.0     0.0                                                   
GRID    20000002        0.0     2.0     0.0    
GRID    20000003        0.0     0.0     2.0    
GRID    20000004        0.0     2.0     2.0    
GRID    20000005        8.0     0.0     0.0 
$end Grid






CBAR    60000000101     50000002500000031.      1.      1.  
CBAR    60000001101     50000003500000041.      1.      1.  
CBAR    60000002101     50000004500000051.      1.      1.  
CBAR    60000003101     50000004500000061.      1.      1.  
CBAR    60000004101     50000006500000071.      1.      1.  
CBAR    60000005101     50000007500000031.      1.      1.  
CBAR    60000006101     50000007500000081.      1.      1.  
CBAR    60000007101     50000008500000091.      1.      1.  
CBAR    60000008101     50000009500000061.      1.      1.  
CBAR    60000009101     50000009500000101.      1.      1.  
CBAR    60000010101     50000010200000051.      1.      1.  
CBAR    60000011101     20000005500000081.      1.      1.  
CBAR    60000012101     50000009200000051.      1.      1.  
CBAR    60000013101     50000010500000081.      1.      1.  
CBAR    60000014101     50000009500000071.      1.      1.  
CBAR    60000015101     50000006500000081.      1.      1.  
CBAR    60000016101     50000006500000031.      1.      1.  
CBAR    60000017101     50000004500000071.      1.      1.  
CBAR    60000018101     50000002500000041.      1.      1.  
CBAR    60000019101     50000005500000031.      1.      1.  
$ ... 54 like lines cut

$pbar_txt
GRID    50000002        4.0     0.0     0.0       
GRID    50000003        5.0     0.0     0.0       
GRID    50000004        5.0     0.0     1.0       
GRID    50000005        4.0     0.0     1.0       
GRID    50000006        6.0     0.0     1.0       
GRID    50000007        6.0     0.0     0.0       
GRID    50000008        7.0     0.0     0.0       
GRID    50000009        7.0     0.0     1.0       
GRID    50000010        8.0     0.0     1.0       
GRID    50000011        4.0     0.0     2.0       
GRID    50000012        5.0     0.0     2.0       
GRID    50000013        6.0     0.0     2.0       
GRID    50000014        7.0     0.0     2.0       
GRID    50000015        8.0     0.0     2.0       
GRID    50000016        0.0     0.0     1.0       
GRID    50000017        1.0     0.0     1.0       
GRID    50000018        1.0     0.0     2.0       
GRID    50000019        2.0     0.0     2.0       
GRID    50000020        2.0     0.0     1.0       
GRID    50000021        3.0     0.0     1.0       
$ ... 4 like lines cut
$end Grid




$cbar


                        

FORCE   1       20000005        999.    0.0     0.0     1.0
                                                                                                                
LOAD    1       1.      1.      10000   1.      10001   1.      99999           
        1.      99998   0.      99994   0.      99993        


SPC     1       20000001123456
SPC     1       20000002123456
SPC     1       20000003123456
SPC     1       20000004123456


                                                   
ENDDATA


                                               

















$ ... 49 like lines cut